Circuit: * C:\Users\anjan\Desktop\Semester 4\Principles Of communication\PSPice\Draft1.asc

Direct Newton iteration for .op point succeeded.

Date: Sun Apr 04 23:01:03 2021
Total elapsed time: 0.140 seconds.

tnom = 27
temp = 27
method = modified trap
totiter = 19556
traniter = 19552
tranpoints = 7115
accept = 4989
rejected = 2126
matrix size = 14
fillins = 2
solver = Normal
Matrix Compiler1: 778 bytes object code size  0.1/0.1/[0.1]
Matrix Compiler2: off  [0.1]/0.1/0.1

