Circuit: * C:\Users\anjan\Desktop\Semester 4\Principles Of communication\PSPice\Draft2.asc

Direct Newton iteration for .op point succeeded.

Date: Sun Apr 04 23:52:18 2021
Total elapsed time: 0.484 seconds.

tnom = 27
temp = 27
method = modified trap
totiter = 31590
traniter = 31579
tranpoints = 14421
accept = 10097
rejected = 4324
matrix size = 14
fillins = 7
solver = Normal
Matrix Compiler1: 844 bytes object code size  0.1/0.1/[0.1]
Matrix Compiler2: off  [0.1]/0.1/0.1

